scratch/greDemo/GridLabD Conversion/SUB 4.glm
///////////////////////////////////////////////////////; 
// This glm created by 'Milsoft to GridLabD Export'. //; 
//             Wed May 21 16:25:10 2014              //; 
///////////////////////////////////////////////////////; 

clock { timestamp '2000-01-01 00:00:00'; } 

module powerflow{ solver_method FBS; } 
// Note: Number Of Looped Switches in WindMil = 0 

object node {
          name            SUB 4; 
          phases          ABCN; 
          bustype         PQ; 
          voltage_A       +7200+0j; 
          voltage_B       -3600-6235.3828j; 
          voltage_C       -3600+6235.3828j; 
          nominal_voltage 7200; 
          } 

object node {name   span_121202_n; phases ABCN; nominal_voltage 7200;  } 

object overhead_line {
          name   span_121202; 
          from   span_121201_n; 
          to     span_121202_n; 
          phases ABCN; 
          length 325; 
          configuration SystemCnstDefaultABCN__4 AC; 
          } 

object node {name   span_121201_n; phases ABCN; nominal_voltage 7200;  } 

object overhead_line {
          name   span_121201; 
          from   span_121194_n; 
          to     span_121201_n; 
          phases ABCN; 
          length 260; 
          configuration SystemCnstDefaultABCN__4 AC; 
          } 

object node {name   span_121194_n; phases ABCN; nominal_voltage 7200;  } 

object overhead_line {
          name   span_121194; 
          from   span_121193_n; 
          to     span_121194_n; 
          phases ABCN; 
          length 250; 
          configuration SystemCnstDefaultABCN__4 AC; 
          } 

object node {name   span_121193_n; phases ABCN; nominal_voltage 7200;  } 

object overhead_line {
          name   span_121193; 
          from   span_121192_n; 
          to     span_121193_n; 
          phases ABCN; 
          length 236; 
          configuration SystemCnstDefaultABCN__4 AC; 
          } 

object node {name   span_121192_n; phases ABCN; nominal_voltage 7200;  } 

object overhead_line {
          name   span_121192; 
          from   span_121191_n; 
          to     span_121192_n; 
          phases ABCN; 
          length 253; 
          configuration SystemCnstDefaultABCN__4 AC; 
          } 

object node {name   span_121191_n; phases ABCN; nominal_voltage 7200;  } 

object overhead_line {
          name   span_121191; 
          from   span_121190_n; 
          to     span_121191_n; 
          phases ABCN; 
          length 284; 
          configuration SystemCnstDefaultABCN__4 AC; 
          } 

object node {name   span_121190_n; phases ABCN; nominal_voltage 7200;  } 

object overhead_line {
          name   span_121190; 
          from   span_9206_n; 
          to     span_121190_n; 
          phases ABCN; 
          length 310; 
          configuration SystemCnstDefaultABCN__4 AC; 
          } 

object node {name   span_9206_n; phases ABCN; nominal_voltage 7200;  } 

object overhead_line {
          name   span_9206; 
          from   span_9208_n; 
          to     span_9206_n; 
          phases ABCN; 
          length 506.57169; 
          configuration SystemCnstDefaultABCN__4 AC; 
          } 

object node {name   span_9208_n; phases ABCN; nominal_voltage 7200;  } 

object overhead_line {
          name   span_9208; 
          from   span_121200_n; 
          to     span_9208_n; 
          phases ABCN; 
          length 303.63385; 
          configuration SystemCnstDefaultABCN__4 AC; 
          } 

object node {name   span_121200_n; phases ABCN; nominal_voltage 7200;  } 

object overhead_line {
          name   span_121200; 
          from   span_121199_n; 
          to     span_121200_n; 
          phases ABCN; 
          length 253; 
          configuration SystemCnstDefaultABCN__4 AC; 
          } 

object node {name   span_121199_n; phases ABCN; nominal_voltage 7200;  } 

object overhead_line {
          name   span_121199; 
          from   span_9203_n; 
          to     span_121199_n; 
          phases ABCN; 
          length 257; 
          configuration SystemCnstDefaultABCN__4 AC; 
          } 

object node {name   span_9203_n; phases ABCN; nominal_voltage 7200;  } 

object overhead_line {
          name   span_9203; 
          from   span_54634_n; 
          to     span_9203_n; 
          phases ABCN; 
          length 549.85486; 
          configuration SystemCnstDefaultABCN__4 AC; 
          } 

object node {name   span_54634_n; phases ABCN; nominal_voltage 7200;  } 

object overhead_line {
          name   span_54634; 
          from   span_56913_n; 
          to     span_54634_n; 
          phases ABCN; 
          length 604; 
          configuration SystemCnstDefaultABCN__4 AC; 
          } 

object node {name   span_56913_n; phases ABCN; nominal_voltage 7200;  } 

object overhead_line {
          name   span_56913; 
          from   span_56912_n; 
          to     span_56913_n; 
          phases ABCN; 
          length 284; 
          configuration SystemCnstDefaultABCN__4 AC; 
          } 

object node {name   span_56912_n; phases ABCN; nominal_voltage 7200;  } 

object overhead_line {
          name   span_56912; 
          from   span_28246_n; 
          to     span_56912_n; 
          phases ABCN; 
          length 679; 
          configuration SystemCnstDefaultABCN__4 AC; 
          } 

object node {name   span_28246_n; phases ABCN; nominal_voltage 7200;  } 

object overhead_line {
          name   span_28246; 
          from   span_28245_n; 
          to     span_28246_n; 
          phases ABCN; 
          length 637.15479; 
          configuration SystemCnstDefaultABCN__4 AC; 
          } 

object node {name   span_28245_n; phases ABCN; nominal_voltage 7200;  } 

object overhead_line {
          name   span_28245; 
          from   SL30-6-4-A_n; 
          to     span_28245_n; 
          phases ABCN; 
          length 84.648125; 
          configuration SystemCnstDefaultABCN__4 AC; 
          } 

object switch {
          name   SL30-6-4-A; 
          from   span_15137_n; 
          to     SL30-6-4-A_n; 
          phases ABCN; 
          status CLOSED; 
          } 

object node {name   SL30-6-4-A_n; phases ABCN; nominal_voltage 7200;  } 

object node {name   span_15137_n; phases ABCN; nominal_voltage 7200;  } 

object underground_line {
          name   span_15137; 
          from   MC CKT 2_n; 
          to     span_15137_n; 
          phases ABCN; 
          length 588.48108; 
          configuration SystemCnstDefaultABC__500 MCM URD; 
          } 

object node {name   MC CKT 2_n; phases ABCN; nominal_voltage 7200;  } 

object recloser {
          name                MC CKT 2; 
          from                SUB 4; 
          to                  MC CKT 2_n; 
          phases              ABCN; 
          max_number_of_tries 2; 
          } 

object node {name   span_15687_n; phases BN; nominal_voltage 7200;  } 

object underground_line {
          name   span_15688; 
          from   span_51158_n; 
          to     span_15688_n; 
          phases BN; 
          length 80.046623; 
          configuration SystemCnstDefaultB__1/0 URD; 
          } 

object node {name   span_15688_n; phases BN; nominal_voltage 7200;  } 

object transformer {
          name   T2951256; 
          from   span_15688_n; 
          to     T2951256_n; 
          phases BN; 
          configuration SINGLE_PHASE-_15-7200To120V; 
          } 

object node {name   T2951256_n; phases BN; nominal_voltage 120;  } 

object underground_line {
          name   span_22271; 
          from   T2951256_n; 
          to     span_22271_n; 
          phases BN; 
          length 208.74527; 
          configuration SystemCnstDefaultB__1/0AL UD; 
          } 

object node {name   span_22271_n; phases BN; nominal_voltage 120;  } 

object underground_line {
          name   span_22272; 
          from   T2951256_n; 
          to     span_22272_n; 
          phases BN; 
          length 199.81468; 
          configuration SystemCnstDefaultB__1/0AL UD; 
          } 

object node {name   span_22272_n; phases BN; nominal_voltage 120;  } 

object transformer {
          name   T2951236; 
          from   span_20352_n; 
          to     T2951236_n; 
          phases BN; 
          configuration SINGLE_PHASE-_25-7200To120V; 
          } 

object node {name   T2951236_n; phases BN; nominal_voltage 120;  } 

object underground_line {
          name   span_22274; 
          from   T2951236_n; 
          to     span_22274_n; 
          phases BN; 
          length 48.120636; 
          configuration SystemCnstDefaultB__1/0AL UD; 
          } 

object node {name   span_22274_n; phases BN; nominal_voltage 120;  } 

object underground_line {
          name   span_22273; 
          from   T2951236_n; 
          to     span_22273_n; 
          phases BN; 
          length 43.916664; 
          configuration SystemCnstDefaultB__1/0AL UD; 
          } 

object node {name   span_22273_n; phases BN; nominal_voltage 120;  } 

object underground_line {
          name   span_22276; 
          from   T2951236_n; 
          to     span_22276_n; 
          phases BN; 
          length 46.180878; 
          configuration SystemCnstDefaultB__1/0AL UD; 
          } 

object node {name   span_22276_n; phases BN; nominal_voltage 120;  } 

object underground_line {
          name   span_22275; 
          from   T2951236_n; 
          to     span_22275_n; 
          phases BN; 
          length 45.527004; 
          configuration SystemCnstDefaultB__1/0AL UD; 
          } 

object node {name   span_22275_n; phases BN; nominal_voltage 120;  } 

object transformer {
          name   T2951233; 
          from   span_51156_n; 
          to     T2951233_n; 
          phases BN; 
          configuration SINGLE_PHASE-_50-7200To120V; 
          } 

object node {name   T2951233_n; phases BN; nominal_voltage 120;  } 

object underground_line {
          name   span_22277; 
          from   T2951233_n; 
          to     span_22277_n; 
          phases BN; 
          length 43.025398; 
          configuration SystemCnstDefaultB__1/0AL UD; 
          } 

object node {name   span_22277_n; phases BN; nominal_voltage 120;  } 

object transformer {
          name   T2951025; 
          from   span_47569_n; 
          to     T2951025_n; 
          phases BN; 
          configuration SINGLE_PHASE-_50-72000To12000V; 
          } 

object node {name   T2951025_n; phases BN; nominal_voltage 12000;  } 

object underground_line {
          name   span_47570; 
          from   T2951025_n; 
          to     span_47570_n; 
          phases BN; 
          length 26.333258; 
          configuration SystemCnstDefaultB__4/0AL UG; 
          } 

object node {name   span_47570_n; phases BN; nominal_voltage 12000;  } 

object transformer {
          name   T2951199; 
          from   span_47568_n; 
          to     T2951199_n; 
          phases BN; 
          configuration SINGLE_PHASE-_10-72000To12000V; 
          } 

object node {name   T2951199_n; phases BN; nominal_voltage 12000;  } 

object overhead_line {
          name   span_47571; 
          from   T2951199_n; 
          to     span_47571_n; 
          phases BN; 
          length 125.08868; 
          configuration SystemCnstDefaultBN__1/0 Triplex; 
          } 

object node {name   span_47571_n; phases BN; nominal_voltage 12000;  } 

object overhead_line {
          name   span_3084; 
          from   span_47552_n; 
          to     span_3084_n; 
          phases BN; 
          length 14.028515; 
          configuration SystemCnstDefaultBN__4 AC; 
          } 

object node {name   span_3084_n; phases BN; nominal_voltage 7200;  } 

object fuse {
          name          F29-31-12; 
          from          span_3084_n; 
          to            F29-31-12_n; 
          phases        BN; 
          current_limit 92.888939; 
          mean_replacement_time 1.0 ; 
          repair_dist_type      NONE; 
          } 

object node {name   F29-31-12_n; phases BN; nominal_voltage 7200;  } 

object overhead_line {
          name   span_5733; 
          from   F29-31-12_n; 
          to     span_5733_n; 
          phases BN; 
          length 62.138214; 
          configuration SystemCnstDefaultBN__4 AC; 
          } 

object node {name   span_5733_n; phases BN; nominal_voltage 7200;  } 

object transformer {
          name   T2951269; 
          from   span_5733_n; 
          to     T2951269_n; 
          phases BN; 
          configuration SINGLE_PHASE-_15-7200To120V; 
          } 

object node {name   T2951269_n; phases BN; nominal_voltage 120;  } 

object overhead_line {
          name   span_108388; 
          from   T2951269_n; 
          to     span_108388_n; 
          phases BN; 
          length 39; 
          configuration SystemCnstDefaultBN__1/0 Triplex; 
          } 

object node {name   span_108388_n; phases BN; nominal_voltage 120;  } 

object underground_line {
          name   span_108389; 
          from   serv_66793_n; 
          to     span_108389_n; 
          phases BN; 
          length 74; 
          configuration SystemCnstDefaultB__4/0AL UG; 
          } 

object node {name   span_108389_n; phases BN; nominal_voltage 120;  } 

object overhead_line {
          name   span_93172; 
          from   T2951269_n; 
          to     span_93172_n; 
          phases BN; 
          length 254; 
          configuration SystemCnstDefaultBN__1/0 Triplex; 
          } 

object node {name   span_93172_n; phases BN; nominal_voltage 120;  } 

object underground_line {
          name   span_93174; 
          from   serv_53178_n; 
          to     span_93174_n; 
          phases BN; 
          length 41.635132; 
          configuration SystemCnstDefaultB__4/0AL UG; 
          } 

object node {name   span_93174_n; phases BN; nominal_voltage 120;  } 

object underground_line {
          name   span_93173; 
          from   serv_53177_n; 
          to     span_93173_n; 
          phases BN; 
          length 44.389587; 
          configuration SystemCnstDefaultB__4/0AL UG; 
          } 

object node {name   span_93173_n; phases BN; nominal_voltage 120;  } 

object overhead_line {
          name   span_5734; 
          from   span_5733_n; 
          to     span_5734_n; 
          phases BN; 
          length 252.77826; 
          configuration SystemCnstDefaultBN__4 AC; 
          } 

object node {name   span_5734_n; phases BN; nominal_voltage 7200;  } 

object overhead_line {
          name   span_9351; 
          from   span_5734_n; 
          to     span_9351_n; 
          phases BN; 
          length 209.15631; 
          configuration SystemCnstDefaultBN__4 AC; 
          } 

object node {name   span_9351_n; phases BN; nominal_voltage 7200;  } 

object transformer {
          name   T2951218; 
          from   span_9351_n; 
          to     T2951218_n; 
          phases BN; 
          configuration SINGLE_PHASE--72000To12000V; 
          } 

object node {name   T2951218_n; phases BN; nominal_voltage 12000;  } 

object overhead_line {
          name   span_47556; 
          from   T2951218_n; 
          to     span_47556_n; 
          phases BN; 
          length 48.822945; 
          configuration SystemCnstDefaultBN__1/0 Triplex; 
          } 

object node {name   span_47556_n; phases BN; nominal_voltage 12000;  } 

object overhead_line {
          name   span_9350; 
          from   span_9351_n; 
          to     span_9350_n; 
          phases BN; 
          length 120.57809; 
          configuration SystemCnstDefaultBN__4 AC; 
          } 

object node {name   span_9350_n; phases BN; nominal_voltage 7200;  } 

object overhead_line {
          name   span_8498; 
          from   span_9350_n; 
          to     span_8498_n; 
          phases BN; 
          length 233.20251; 
          configuration SystemCnstDefaultBN__4 AC; 
          } 

object node {name   span_8498_n; phases BN; nominal_voltage 7200;  } 

object transformer {
          name   T2951003; 
          from   span_8498_n; 
          to     T2951003_n; 
          phases BN; 
          configuration SINGLE_PHASE-_10-72000To12000V; 
          } 

object node {name   T2951003_n; phases BN; nominal_voltage 12000;  } 

object overhead_line {
          name   span_47558; 
          from   T2951003_n; 
          to     span_47558_n; 
          phases BN; 
          length 46.025379; 
          configuration SystemCnstDefaultBN__1/0 Triplex; 
          } 

object node {name   span_47558_n; phases BN; nominal_voltage 12000;  } 

object overhead_line {
          name   span_47557; 
          from   T2951003_n; 
          to     span_47557_n; 
          phases BN; 
          length 59.538048; 
          configuration SystemCnstDefaultBN__1/0 Triplex; 
          } 

object node {name   span_47557_n; phases BN; nominal_voltage 12000;  } 

object underground_line {
          name   span_17707; 
          from   span_5734_n; 
          to     span_17707_n; 
          phases BN; 
          length 6.3454094; 
          configuration SystemCnstDefaultB__1/0 URD; 
          } 

object node {name   span_17707_n; phases BN; nominal_voltage 7200;  } 

object fuse {
          name          F29-30-17; 
          from          span_17707_n; 
          to            F29-30-17_n; 
          phases        BN; 
          current_limit 45.00544; 
          mean_replacement_time 1.0 ; 
          repair_dist_type      NONE; 
          } 

object node {name   F29-30-17_n; phases BN; nominal_voltage 7200;  } 

object underground_line {
          name   span_17708; 
          from   F29-30-17_n; 
          to     span_17708_n; 
          phases BN; 
          length 51.251072; 
          configuration SystemCnstDefaultB__1/0 URD; 
          } 

object node {name   span_17708_n; phases BN; nominal_voltage 7200;  } 

object transformer {
          name   T2951244; 
          from   span_17708_n; 
          to     T2951244_n; 
          phases BN; 
          configuration SINGLE_PHASE-_25-72000To12000V; 
          } 

object node {name   T2951244_n; phases BN; nominal_voltage 12000;  } 

object underground_line {
          name   span_47555; 
          from   T2951244_n; 
          to     span_47555_n; 
          phases BN; 
          length 20.717022; 
          configuration SystemCnstDefaultB__4/0AL UG; 
          } 

object node {name   span_47555_n; phases BN; nominal_voltage 12000;  } 

object transformer {
          name   tran_10425; 
          from   span_47551_n; 
          to     tran_10425_n; 
          phases BN; 
          configuration SINGLE_PHASE-_15-72000To12000V; 
          } 

object node {name   tran_10425_n; phases BN; nominal_voltage 12000;  } 

object transformer {
          name   tran_10426; 
          from   span_47551_n; 
          to     tran_10426_n; 
          phases CN; 
          configuration SINGLE_PHASE-_15-72000To12000V; 
          } 

object node {name   tran_10426_n; phases CN; nominal_voltage 12000;  } 

object node {name   fake_g_13_n; parent tran_10426_n; phases ABCN; nominal_voltage 12000;  } 

object overhead_line {
          name   span_47554; 
          from   fake_g_13_n; 
          to     span_47554_n; 
          phases ABCN; 
          length 206.30235; 
          configuration SystemCnstDefaultABCN__4/0 Quplex; 
          } 

object node {name   span_47554_n; phases ABCN; nominal_voltage 12000;  } 

object overhead_line {
          name   span_47553; 
          from   fake_g_13_n; 
          to     span_47553_n; 
          phases ABCN; 
          length 107.21112; 
          configuration SystemCnstDefaultABCN__4/0 Quplex; 
          } 

object node {name   span_47553_n; phases ABCN; nominal_voltage 12000;  } 

object transformer {
          name   T2951013; 
          from   span_47547_n; 
          to     T2951013_n; 
          phases AN; 
          configuration SINGLE_PHASE-_15-72000To12000V; 
          } 

object node {name   T2951013_n; phases AN; nominal_voltage 12000;  } 

object overhead_line {
          name   span_47548; 
          from   T2951013_n; 
          to     span_47548_n; 
          phases AN; 
          length 101.04941; 
          configuration SystemCnstDefaultAN__1/0 Triplex; 
          } 

object node {name   span_47548_n; phases AN; nominal_voltage 12000;  } 

object underground_line {
          name   span_54660; 
          from   serv_20614_n; 
          to     span_54660_n; 
          phases AN; 
          length 94.778877; 
          configuration SystemCnstDefaultA__4/0AL UG; 
          } 

object node {name   span_54660_n; phases AN; nominal_voltage 12000;  } 

object overhead_line {
          name   span_54659; 
          from   T2951013_n; 
          to     span_54659_n; 
          phases AN; 
          length 156; 
          configuration SystemCnstDefaultAN__#2 Triplex; 
          } 

object node {name   span_54659_n; phases AN; nominal_voltage 12000;  } 

object underground_line {
          name   span_54661; 
          from   serv_20612_n; 
          to     span_54661_n; 
          phases AN; 
          length 48.838505; 
          configuration SystemCnstDefaultA__4/0AL UG; 
          } 

object node {name   span_54661_n; phases AN; nominal_voltage 12000;  } 

object overhead_line {
          name   span_286; 
          from   span_47527_n; 
          to     span_286_n; 
          phases ABCN; 
          length 187.06198; 
          configuration SystemCnstDefaultABCN__1/0 AC; 
          } 

object node {name   span_286_n; phases ABCN; nominal_voltage 7200;  } 

object transformer {
          name   T2951071; 
          from   span_47531_n; 
          to     T2951071_n; 
          phases CN; 
          configuration SINGLE_PHASE-_15-72000To12000V; 
          } 

object node {name   T2951071_n; phases CN; nominal_voltage 12000;  } 

object overhead_line {
          name   span_47529; 
          from   T2951071_n; 
          to     span_47529_n; 
          phases CN; 
          length 78.649826; 
          configuration SystemCnstDefaultCN__1/0 Triplex; 
          } 

object node {name   span_47529_n; phases CN; nominal_voltage 12000;  } 

object overhead_line {
          name   span_47528; 
          from   T2951071_n; 
          to     span_47528_n; 
          phases CN; 
          length 48.546856; 
          configuration SystemCnstDefaultCN__1/0 Triplex; 
          } 

object node {name   span_47528_n; phases CN; nominal_voltage 12000;  } 

object transformer {
          name   T2951074; 
          from   span_47530_n; 
          to     T2951074_n; 
          phases CN; 
          configuration SINGLE_PHASE-_25-72000To12000V; 
          } 

object node {name   T2951074_n; phases CN; nominal_voltage 12000;  } 

object overhead_line {
          name   span_47994; 
          from   T2951074_n; 
          to     span_47994_n; 
          phases CN; 
          length 179.54408; 
          configuration SystemCnstDefaultCN__1/0 Triplex; 
          } 

object node {name   span_47994_n; phases CN; nominal_voltage 12000;  } 

object overhead_line {
          name   span_240; 
          from   span_5690_n; 
          to     span_240_n; 
          phases BN; 
          length 103.52566; 
          configuration SystemCnstDefaultBN__1/0 AC; 
          } 

object node {name   span_240_n; phases BN; nominal_voltage 7200;  } 

object transformer {
          name   T2951102; 
          from   span_240_n; 
          to     T2951102_n; 
          phases BN; 
          configuration SINGLE_PHASE-_10-72000To12000V; 
          } 

object node {name   T2951102_n; phases BN; nominal_voltage 12000;  } 

object overhead_line {
          name   span_47523; 
          from   T2951102_n; 
          to     span_47523_n; 
          phases BN; 
          length 92.474686; 
          configuration SystemCnstDefaultBN__1/0 Triplex; 
          } 

object node {name   span_47523_n; phases BN; nominal_voltage 12000;  } 

object overhead_line {
          name   span_47524; 
          from   T2951102_n; 
          to     span_47524_n; 
          phases BN; 
          length 120.18655; 
          configuration SystemCnstDefaultBN__1/0 Triplex; 
          } 

object node {name   span_47524_n; phases BN; nominal_voltage 12000;  } 

object overhead_line {
          name   span_47522; 
          from   T2951102_n; 
          to     span_47522_n; 
          phases BN; 
          length 44.005829; 
          configuration SystemCnstDefaultBN__1/0 Triplex; 
          } 

object node {name   span_47522_n; phases BN; nominal_voltage 12000;  } 

object transformer {
          name   TH29-51-77; 
          from   span_5690_n; 
          to     TH29-51-77_n; 
          phases BN; 
          configuration SINGLE_PHASE-_15-7200To120V; 
          } 

object node {name   TH29-51-77_n; phases BN; nominal_voltage 120;  } 

object overhead_line {
          name   span_43715; 
          from   TH29-51-77_n; 
          to     span_43715_n; 
          phases BN; 
          length 90.074242; 
          configuration SystemCnstDefaultBN__4/0 Triplex; 
          } 

object node {name   span_43715_n; phases BN; nominal_voltage 120;  } 

object overhead_line {
          name   span_43717; 
          from   span_43715_n; 
          to     span_43717_n; 
          phases BN; 
          length 66.632065; 
          configuration SystemCnstDefaultBN__1/0 Triplex; 
          } 

object node {name   span_43717_n; phases BN; nominal_voltage 120;  } 

object overhead_line {
          name   span_43718; 
          from   span_43715_n; 
          to     span_43718_n; 
          phases BN; 
          length 141.43559; 
          configuration SystemCnstDefaultBN__#2 Triplex; 
          } 

object node {name   span_43718_n; phases BN; nominal_voltage 120;  } 

object overhead_line {
          name   span_43716; 
          from   span_43715_n; 
          to     span_43716_n; 
          phases BN; 
          length 53.490005; 
          configuration SystemCnstDefaultBN__1/0 Triplex; 
          } 

object node {name   span_43716_n; phases BN; nominal_voltage 120;  } 

object fuse {
          name          F29-31-13; 
          from          span_5685_n; 
          to            F29-31-13_n; 
          phases        CN; 
          current_limit 92.888939; 
          mean_replacement_time 1.0 ; 
          repair_dist_type      NONE; 
          } 

object node {name   F29-31-13_n; phases CN; nominal_voltage 7200;  } 

object overhead_line {
          name   span_8499; 
          from   F29-31-13_n; 
          to     span_8499_n; 
          phases CN; 
          length 119.5411; 
          configuration SystemCnstDefaultCN__4 AC; 
          } 

object node {name   span_8499_n; phases CN; nominal_voltage 7200;  } 

object transformer {
          name   T2951080; 
          from   span_8499_n; 
          to     T2951080_n; 
          phases CN; 
          configuration SINGLE_PHASE-_10-72000To12000V; 
          } 

object node {name   T2951080_n; phases CN; nominal_voltage 12000;  } 

object underground_line {
          name   span_49148; 
          from   serv_16820_n; 
          to     span_49148_n; 
          phases CN; 
          length 38.204483; 
          configuration SystemCnstDefaultC__4/0AL UG; 
          } 

object node {name   span_49148_n; phases CN; nominal_voltage 12000;  } 

object overhead_line {
          name   span_8500; 
          from   span_8499_n; 
          to     span_8500_n; 
          phases CN; 
          length 123.78978; 
          configuration SystemCnstDefaultCN__4 AC; 
          } 

object node {name   span_8500_n; phases CN; nominal_voltage 7200;  } 

object overhead_line {
          name   span_6665; 
          from   span_8500_n; 
          to     span_6665_n; 
          phases CN; 
          length 126.30815; 
          configuration SystemCnstDefaultCN__4 AC; 
          } 

object node {name   span_6665_n; phases CN; nominal_voltage 7200;  } 

object overhead_line {
          name   span_6532; 
          from   span_6665_n; 
          to     span_6532_n; 
          phases CN; 
          length 137.05452; 
          configuration SystemCnstDefaultCN__4 AC; 
          } 

object node {name   span_6532_n; phases CN; nominal_voltage 7200;  } 

object overhead_line {
          name   span_6679; 
          from   span_6532_n; 
          to     span_6679_n; 
          phases CN; 
          length 24.806622; 
          configuration SystemCnstDefaultCN__4 AC; 
          } 

object node {name   span_6679_n; phases CN; nominal_voltage 7200;  } 

object overhead_line {
          name   span_6680; 
          from   span_6679_n; 
          to     span_6680_n; 
          phases CN; 
          length 103.28754; 
          configuration SystemCnstDefaultCN__4 AC; 
          } 

object node {name   span_6680_n; phases CN; nominal_voltage 7200;  } 

object overhead_line {
          name   span_5776; 
          from   span_6680_n; 
          to     span_5776_n; 
          phases CN; 
          length 99.215202; 
          configuration SystemCnstDefaultCN__4 AC; 
          } 

object node {name   span_5776_n; phases CN; nominal_voltage 7200;  } 

object overhead_line {
          name   span_5777; 
          from   span_5776_n; 
          to     span_5777_n; 
          phases CN; 
          length 935.63464; 
          configuration SystemCnstDefaultCN__4 AC; 
          } 

object node {name   span_5777_n; phases CN; nominal_voltage 7200;  } 

object transformer {
          name   T2951032; 
          from   span_5777_n; 
          to     T2951032_n; 
          phases CN; 
          configuration SINGLE_PHASE-_15-7200000To120000V; 
          } 

object node {name   T2951032_n; phases CN; nominal_voltage 120000;  } 

object overhead_line {
          name   span_48327; 
          from   T2951032_n; 
          to     span_48327_n; 
          phases CN; 
          length 24.476934; 
          configuration SystemCnstDefaultCN__1/0 Triplex; 
          } 

object node {name   span_48327_n; phases CN; nominal_voltage 120000;  } 

object transformer {
          name   T2951034; 
          from   span_5776_n; 
          to     T2951034_n; 
          phases CN; 
          configuration SINGLE_PHASE-_25-7200To120V; 
          } 

object node {name   T2951034_n; phases CN; nominal_voltage 120;  } 

object overhead_line {
          name   span_12779; 
          from   T2951034_n; 
          to     span_12779_n; 
          phases CN; 
          length 134.6324; 
          configuration SystemCnstDefaultCN__1/0 Triplex; 
          } 

object node {name   span_12779_n; phases CN; nominal_voltage 120;  } 

object overhead_line {
          name   span_12781; 
          from   T2951034_n; 
          to     span_12781_n; 
          phases CN; 
          length 231.45316; 
          configuration SystemCnstDefaultCN__1/0 Triplex; 
          } 

object node {name   span_12781_n; phases CN; nominal_voltage 120;  } 

object overhead_line {
          name   span_12777; 
          from   T2951034_n; 
          to     span_12777_n; 
          phases CN; 
          length 67.702713; 
          configuration SystemCnstDefaultCN__1/0 Triplex; 
          } 

object node {name   span_12777_n; phases CN; nominal_voltage 120;  } 

object overhead_line {
          name   span_13401; 
          from   T2951034_n; 
          to     span_13401_n; 
          phases CN; 
          length 146.84691; 
          configuration SystemCnstDefaultCN__#2 Triplex; 
          } 

object node {name   span_13401_n; phases CN; nominal_voltage 120;  } 

object overhead_line {
          name   span_13400; 
          from   span_13401_n; 
          to     span_13400_n; 
          phases CN; 
          length 43.107281; 
          configuration SystemCnstDefaultCN__#2 Triplex; 
          } 

object node {name   span_13400_n; phases CN; nominal_voltage 120;  } 

object overhead_line {
          name   span_13130; 
          from   T2951034_n; 
          to     span_13130_n; 
          phases CN; 
          length 55.684368; 
          configuration SystemCnstDefaultCN__1/0 Triplex; 
          } 

object node {name   span_13130_n; phases CN; nominal_voltage 120;  } 

object overhead_line {
          name   span_12778; 
          from   T2951034_n; 
          to     span_12778_n; 
          phases CN; 
          length 284.90775; 
          configuration SystemCnstDefaultCN__1/0 Triplex; 
          } 

object node {name   span_12778_n; phases CN; nominal_voltage 120;  } 

object overhead_line {
          name   span_13129; 
          from   T2951034_n; 
          to     span_13129_n; 
          phases CN; 
          length 229.85995; 
          configuration SystemCnstDefaultCN__1/0 Triplex; 
          } 

object node {name   span_13129_n; phases CN; nominal_voltage 120;  } 

object overhead_line {
          name   span_12780; 
          from   T2951034_n; 
          to     span_12780_n; 
          phases CN; 
          length 232.67294; 
          configuration SystemCnstDefaultCN__1/0 Triplex; 
          } 

object node {name   span_12780_n; phases CN; nominal_voltage 120;  } 

object transformer {
          name   T2951036; 
          from   span_6680_n; 
          to     T2951036_n; 
          phases CN; 
          configuration SINGLE_PHASE-_10-7200To120V; 
          } 

object node {name   T2951036_n; phases CN; nominal_voltage 120;  } 

object overhead_line {
          name   span_13131; 
          from   T2951036_n; 
          to     span_13131_n; 
          phases CN; 
          length 56.543194; 
          configuration SystemCnstDefaultCN__#2 Triplex; 
          } 

object node {name   span_13131_n; phases CN; nominal_voltage 120;  } 

object transformer {
          name   T2951048; 
          from   span_6665_n; 
          to     T2951048_n; 
          phases CN; 
          configuration SINGLE_PHASE-_15-7200To120V; 
          } 

object node {name   T2951048_n; phases CN; nominal_voltage 120;  } 

object overhead_line {
          name   span_13141; 
          from   T2951048_n; 
          to     span_13141_n; 
          phases CN; 
          length 165.7905; 
          configuration SystemCnstDefaultCN__1/0 Triplex; 
          } 

object node {name   span_13141_n; phases CN; nominal_voltage 120;  } 

object overhead_line {
          name   span_13139; 
          from   T2951048_n; 
          to     span_13139_n; 
          phases CN; 
          length 188.63528; 
          configuration SystemCnstDefaultCN__1/0 Triplex; 
          } 

object node {name   span_13139_n; phases CN; nominal_voltage 120;  } 

object overhead_line {
          name   span_13142; 
          from   T2951048_n; 
          to     span_13142_n; 
          phases CN; 
          length 73.74501; 
          configuration SystemCnstDefaultCN__1/0 Triplex; 
          } 

object node {name   span_13142_n; phases CN; nominal_voltage 120;  } 

object overhead_line {
          name   span_13469; 
          from   T2951048_n; 
          to     span_13469_n; 
          phases CN; 
          length 47.538017; 
          configuration SystemCnstDefaultCN__1/0 Triplex; 
          } 

object node {name   span_13469_n; phases CN; nominal_voltage 120;  } 

object overhead_line {
          name   span_13468; 
          from   span_13469_n; 
          to     span_13468_n; 
          phases CN; 
          length 33.343662; 
          configuration SystemCnstDefaultCN__1/0 Triplex; 
          } 

object node {name   span_13468_n; phases CN; nominal_voltage 120;  } 

object overhead_line {
          name   span_13140; 
          from   T2951048_n; 
          to     span_13140_n; 
          phases CN; 
          length 102.28948; 
          configuration SystemCnstDefaultCN__1/0 Triplex; 
          } 

object node {name   span_13140_n; phases CN; nominal_voltage 120;  } 

object overhead_line {
          name   span_3081; 
          from   span_5683_n; 
          to     span_3081_n; 
          phases BN; 
          length 3.2638345; 
          configuration SystemCnstDefaultBN__1/0 AC; 
          } 

object node {name   span_3081_n; phases BN; nominal_voltage 7200;  } 

object fuse {
          name          F29-31-17; 
          from          span_3081_n; 
          to            F29-31-17_n; 
          phases        BN; 
          current_limit 45.00544; 
          mean_replacement_time 1.0 ; 
          repair_dist_type      NONE; 
          } 

object node {name   F29-31-17_n; phases BN; nominal_voltage 7200;  } 

object overhead_line {
          name   span_39257; 
          from   F29-31-17_n; 
          to     span_39257_n; 
          phases BN; 
          length 185.88852; 
          configuration SystemCnstDefaultBN__1/0 AC; 
          } 

object node {name   span_39257_n; phases BN; nominal_voltage 7200;  } 

object transformer {
          name   T2951108; 
          from   span_39257_n; 
          to     T2951108_n; 
          phases BN; 
          configuration SINGLE_PHASE-_10-72000To12000V; 
          } 

object node {name   T2951108_n; phases BN; nominal_voltage 12000;  } 

object overhead_line {
          name   span_47261; 
          from   T2951108_n; 
          to     span_47261_n; 
          phases BN; 
          length 187.21497; 
          configuration SystemCnstDefaultBN__1/0 Triplex; 
          } 

object node {name   span_47261_n; phases BN; nominal_voltage 12000;  } 

object overhead_line {
          name   span_39259; 
          from   T2951108_n; 
          to     span_39259_n; 
          phases BN; 
          length 104.55139; 
          configuration SystemCnstDefaultBN__#2 Triplex; 
          } 

object node {name   span_39259_n; phases BN; nominal_voltage 12000;  } 

object overhead_line {
          name   span_47260; 
          from   span_39259_n; 
          to     span_47260_n; 
          phases BN; 
          length 116.31487; 
          configuration SystemCnstDefaultBN__1/0 Triplex; 
          } 

object node {name   span_47260_n; phases BN; nominal_voltage 12000;  } 

object underground_line {
          name   span_39260; 
          from   serv_64099_n; 
          to     span_39260_n; 
          phases BN; 
          length 71.319061; 
          configuration SystemCnstDefaultB__4/0AL UG; 
          } 

object node {name   span_39260_n; phases BN; nominal_voltage 12000;  } 

object overhead_line {
          name   span_47259; 
          from   T2951108_n; 
          to     span_47259_n; 
          phases BN; 
          length 106.15013; 
          configuration SystemCnstDefaultBN__1/0 Triplex; 
          } 

object node {name   span_47259_n; phases BN; nominal_voltage 12000;  } 

object overhead_line {
          name   span_47258; 
          from   T2951108_n; 
          to     span_47258_n; 
          phases BN; 
          length 151.99838; 
          configuration SystemCnstDefaultBN__1/0 Triplex; 
          } 

object node {name   span_47258_n; phases BN; nominal_voltage 12000;  } 

object overhead_line {
          name   span_47262; 
          from   span_47258_n; 
          to     span_47262_n; 
          phases BN; 
          length 33.396954; 
          configuration SystemCnstDefaultBN__1/0 Triplex; 
          } 

object node {name   span_47262_n; phases BN; nominal_voltage 12000;  } 

object overhead_line {
          name   span_39258; 
          from   span_39257_n; 
          to     span_39258_n; 
          phases BN; 
          length 138.32826; 
          configuration SystemCnstDefaultBN__1/0 AC; 
          } 

object node {name   span_39258_n; phases BN; nominal_voltage 7200;  } 

object transformer {
          name   T2951114; 
          from   span_39258_n; 
          to     T2951114_n; 
          phases BN; 
          configuration SINGLE_PHASE-_10-72000To12000V; 
          } 

object node {name   T2951114_n; phases BN; nominal_voltage 12000;  } 

object overhead_line {
          name   span_47264; 
          from   T2951114_n; 
          to     span_47264_n; 
          phases BN; 
          length 99.504852; 
          configuration SystemCnstDefaultBN__1/0 Triplex; 
          } 

object node {name   span_47264_n; phases BN; nominal_voltage 12000;  } 

object overhead_line {
          name   span_47263; 
          from   T2951114_n; 
          to     span_47263_n; 
          phases BN; 
          length 83.116592; 
          configuration SystemCnstDefaultBN__1/0 Triplex; 
          } 

object node {name   span_47263_n; phases BN; nominal_voltage 12000;  } 

object overhead_line {
          name   span_122391; 
          from   T2951114_n; 
          to     span_122391_n; 
          phases BN; 
          length 117.86365; 
          configuration SystemCnstDefaultBN_STL SEC#6CU; 
          } 

object node {name   span_122391_n; phases BN; nominal_voltage 12000;  } 

object overhead_line {
          name   span_122392; 
          from   span_122391_n; 
          to     span_122392_n; 
          phases BN; 
          length 122.77454; 
          configuration SystemCnstDefaultBN_STL SEC#6CU; 
          } 

object node {name   span_122392_n; phases BN; nominal_voltage 12000;  } 

object overhead_line {
          name   span_47265; 
          from   T2951114_n; 
          to     span_47265_n; 
          phases BN; 
          length 136.36748; 
          configuration SystemCnstDefaultBN__1/0 Triplex; 
          } 

object node {name   span_47265_n; phases BN; nominal_voltage 12000;  } 

object transformer {
          name   T2951083; 
          from   span_5683_n; 
          to     T2951083_n; 
          phases CN; 
          configuration SINGLE_PHASE-_100-72000To12000V; 
          } 

object node {name   T2951083_n; phases CN; nominal_voltage 12000;  } 

object overhead_line {
          name   span_49142; 
          from   serv_16821_n; 
          to     span_49142_n; 
          phases CN; 
          length 94.506439; 
          configuration SystemCnstDefaultCN__4/0 Triplex; 
          } 

object node {name   span_49142_n; phases CN; nominal_voltage 12000;  } 

object underground_line {
          name   span_49143; 
          from   serv_64043_n; 
          to     span_49143_n; 
          phases CN; 
          length 111.17451; 
          configuration SystemCnstDefaultC__4/0AL UG; 
          } 

object node {name   span_49143_n; phases CN; nominal_voltage 12000;  } 

object overhead_line {
          name   span_49147; 
          from   span_49142_n; 
          to     span_49147_n; 
          phases CN; 
          length 154.40497; 
          configuration SystemCnstDefaultCN__1/0 Triplex; 
          } 

object node {name   span_49147_n; phases CN; nominal_voltage 12000;  } 

object overhead_line {
          name   span_49144; 
          from   span_49142_n; 
          to     span_49144_n; 
          phases CN; 
          length 45; 
          configuration SystemCnstDefaultCN__1/0 Triplex; 
          } 

object node {name   span_49144_n; phases CN; nominal_voltage 12000;  } 

object underground_line {
          name   span_49145; 
          from   serv_64032_n; 
          to     span_49145_n; 
          phases CN; 
          length 61.905075; 
          configuration SystemCnstDefaultC__4/0AL UG; 
          } 

object node {name   span_49145_n; phases CN; nominal_voltage 12000;  } 

object overhead_line {
          name   span_49146; 
          from   span_49142_n; 
          to     span_49146_n; 
          phases CN; 
          length 46.689816; 
          configuration SystemCnstDefaultCN__1/0 Triplex; 
          } 

object node {name   span_49146_n; phases CN; nominal_voltage 12000;  } 

object underground_line {
          name   span_49141; 
          from   serv_16822_n; 
          to     span_49141_n; 
          phases CN; 
          length 81.879097; 
          configuration SystemCnstDefaultC__4/0AL UG; 
          } 

object node {name   span_49141_n; phases CN; nominal_voltage 12000;  } 

object transformer {
          name   T2951089; 
          from   span_5679_n; 
          to     T2951089_n; 
          phases ACN; 
          configuration WYE_WYE-ave__15-_5-72000To12000V; 
          } 

object node {name   T2951089_n; phases ACN; nominal_voltage 12000;  } 

object transformer {
          name   tran_10355; 
          from   span_5679_n; 
          to     tran_10355_n; 
          phases BN; 
          configuration SINGLE_PHASE-_25-72000To12000V; 
          } 

object node {name   tran_10355_n; phases BN; nominal_voltage 12000;  } 

object node {name   fake_g_16_n; parent tran_10355_n; phases ABCN; nominal_voltage 12000;  } 

object overhead_line {
          name   span_47314; 
          from   fake_g_16_n; 
          to     span_47314_n; 
          phases ABCN; 
          length 195.73929; 
          configuration SystemCnstDefaultABCN__4/0 Triplex; 
          } 

object node {name   span_47314_n; phases ABCN; nominal_voltage 12000;  } 

object overhead_line {
          name   span_3079; 
          from   span_5679_n; 
          to     span_3079_n; 
          phases BN; 
          length 7.0254135; 
          configuration SystemCnstDefaultBN__1/0 AC; 
          } 

object node {name   span_3079_n; phases BN; nominal_voltage 7200;  } 

object fuse {
          name          F29-31-18; 
          from          span_3079_n; 
          to            F29-31-18_n; 
          phases        BN; 
          current_limit 45.00544; 
          mean_replacement_time 1.0 ; 
          repair_dist_type      NONE; 
          } 

object node {name   F29-31-18_n; phases BN; nominal_voltage 7200;  } 

object overhead_line {
          name   span_3080; 
          from   F29-31-18_n; 
          to     span_3080_n; 
          phases BN; 
          length 141.82137; 
          configuration SystemCnstDefaultBN__1/0 AC; 
          } 

object node {name   span_3080_n; phases BN; nominal_voltage 7200;  } 

object transformer {
          name   T2951115; 
          from   span_3080_n; 
          to     T2951115_n; 
          phases BN; 
          configuration SINGLE_PHASE-_15-72000To12000V; 
          } 

object node {name   T2951115_n; phases BN; nominal_voltage 12000;  } 

object overhead_line {
          name   span_47309; 
          from   T2951115_n; 
          to     span_47309_n; 
          phases BN; 
          length 87.449203; 
          configuration SystemCnstDefaultBN__1/0 Triplex; 
          } 

object node {name   span_47309_n; phases BN; nominal_voltage 12000;  } 

object overhead_line {
          name   span_47310; 
          from   T2951115_n; 
          to     span_47310_n; 
          phases BN; 
          length 79.469261; 
          configuration SystemCnstDefaultBN__1/0 Triplex; 
          } 

object node {name   span_47310_n; phases BN; nominal_voltage 12000;  } 

object overhead_line {
          name   span_47311; 
          from   T2951115_n; 
          to     span_47311_n; 
          phases BN; 
          length 165.56546; 
          configuration SystemCnstDefaultBN__1/0 Triplex; 
          } 

object node {name   span_47311_n; phases BN; nominal_voltage 12000;  } 

object underground_line {
          name   span_111173; 
          from   serv_69980_n; 
          to     span_111173_n; 
          phases BN; 
          length 68.387794; 
          configuration SystemCnstDefaultB__4/0AL UG; 
          } 

object node {name   span_111173_n; phases BN; nominal_voltage 12000;  } 

object overhead_line {
          name   span_47313; 
          from   span_47311_n; 
          to     span_47313_n; 
          phases BN; 
          length 90.65152; 
          configuration SystemCnstDefaultBN__1/0 Triplex; 
          } 

object node {name   span_47313_n; phases BN; nominal_voltage 12000;  } 

object underground_line {
          name   span_111172; 
          from   serv_69979_n; 
          to     span_111172_n; 
          phases BN; 
          length 35.16967; 
          configuration SystemCnstDefaultB__4/0AL UG; 
          } 

object node {name   span_111172_n; phases BN; nominal_voltage 12000;  } 

object overhead_line {
          name   span_47312; 
          from   T2951115_n; 
          to     span_47312_n; 
          phases BN; 
          length 135.39279; 
          configuration SystemCnstDefaultBN__1/0 Triplex; 
          } 

object node {name   span_47312_n; phases BN; nominal_voltage 12000;  } 

object overhead_line {
          name   span_11993; 
          from   span_5679_n; 
          to     span_11993_n; 
          phases CN; 
          length 151.29442; 
          configuration SystemCnstDefaultCN__1/0 AC; 
          } 

object node {name   span_11993_n; phases CN; nominal_voltage 7200;  } 

object overhead_line {
          name   span_11992; 
          from   span_11993_n; 
          to     span_11992_n; 
          phases CN; 
          length 45.07399; 
          configuration SystemCnstDefaultCN__1/0 AC; 
          } 

object node {name   span_11992_n; phases CN; nominal_voltage 7200;  } 

object fuse {
          name          F29-31-14; 
          from          span_11992_n; 
          to            F29-31-14_n; 
          phases        CN; 
          current_limit 45.00544; 
          mean_replacement_time 1.0 ; 
          repair_dist_type      NONE; 
          } 

object node {name   F29-31-14_n; phases CN; nominal_voltage 7200;  } 

object overhead_line {
          name   span_47303; 
          from   F29-31-14_n; 
          to     span_47303_n; 
          phases CN; 
          length 127; 
          configuration SystemCnstDefaultCN__1/0 AC; 
          } 

object node {name   span_47303_n; phases CN; nominal_voltage 7200;  } 

object overhead_line {
          name   span_47304; 
          from   span_47303_n; 
          to     span_47304_n; 
          phases CN; 
          length 222; 
          configuration SystemCnstDefaultCN__1/0 AC; 
          } 

object node {name   span_47304_n; phases CN; nominal_voltage 7200;  } 

object overhead_line {
          name   span_106776; 
          from   span_47304_n; 
          to     span_106776_n; 
          phases CN; 
          length 272; 
          configuration SystemCnstDefaultCN__4 AC; 
          } 

object node {name   span_106776_n; phases CN; nominal_voltage 7200;  } 

object overhead_line {
          name   span_106781; 
          from   span_106776_n; 
          to     span_106781_n; 
          phases CN; 
          length 270; 
          configuration SystemCnstDefaultCN__4 AC; 
          } 

object node {name   span_106781_n; phases CN; nominal_voltage 7200;  } 

object transformer {
          name   T2951038; 
          from   span_106781_n; 
          to     T2951038_n; 
          phases CN; 
          configuration SINGLE_PHASE-_15-7200To120V; 
          } 

object node {name   T2951038_n; phases CN; nominal_voltage 120;  } 

object overhead_line {
          name   span_13143; 
          from   T2951038_n; 
          to     span_13143_n; 
          phases CN; 
          length 122.17979; 
          configuration SystemCnstDefaultCN__#2 Triplex; 
          } 

object node {name   span_13143_n; phases CN; nominal_voltage 120;  } 

object overhead_line {
          name   span_13147; 
          from   T2951038_n; 
          to     span_13147_n; 
          phases CN; 
          length 140.72462; 
          configuration SystemCnstDefaultCN__#2 Triplex; 
          } 

object node {name   span_13147_n; phases CN; nominal_voltage 120;  } 

object underground_line {
          name   span_121228; 
          from   serv_79195_n; 
          to     span_121228_n; 
          phases CN; 
          length 133; 
          configuration SystemCnstDefaultC__4/0AL UG; 
          } 

object node {name   span_121228_n; phases CN; nominal_voltage 120;  } 

object overhead_line {
          name   span_13145; 
          from   T2951038_n; 
          to     span_13145_n; 
          phases CN; 
          length 152.85844; 
          configuration SystemCnstDefaultCN__#2 Triplex; 
          } 

object node {name   span_13145_n; phases CN; nominal_voltage 120;  } 

object overhead_line {
          name   span_13144; 
          from   T2951038_n; 
          to     span_13144_n; 
          phases CN; 
          length 117.90929; 
          configuration SystemCnstDefaultCN__#2 Triplex; 
          } 

object node {name   span_13144_n; phases CN; nominal_voltage 120;  } 

object overhead_line {
          name   span_106782; 
          from   span_106776_n; 
          to     span_106782_n; 
          phases CN; 
          length 140.72197; 
          configuration SystemCnstDefaultCN__4 AC; 
          } 

object node {name   span_106782_n; phases CN; nominal_voltage 7200;  } 

object overhead_line {
          name   span_106783; 
          from   span_106782_n; 
          to     span_106783_n; 
          phases CN; 
          length 141.24583; 
          configuration SystemCnstDefaultCN__4 AC; 
          } 

object node {name   span_106783_n; phases CN; nominal_voltage 7200;  } 

object transformer {
          name   T2951055; 
          from   span_106783_n; 
          to     T2951055_n; 
          phases CN; 
          configuration SINGLE_PHASE-_25-7200To120V; 
          } 

object node {name   T2951055_n; phases CN; nominal_voltage 120;  } 

object overhead_line {
          name   span_13150; 
          from   T2951055_n; 
          to     span_13150_n; 
          phases CN; 
          length 169.71034; 
          configuration SystemCnstDefaultCN__1/0 Triplex; 
          } 

object node {name   span_13150_n; phases CN; nominal_voltage 120;  } 

object overhead_line {
          name   span_13148; 
          from   T2951055_n; 
          to     span_13148_n; 
          phases CN; 
          length 277.73087; 
          configuration SystemCnstDefaultCN__1/0 Triplex; 
          } 

object node {name   span_13148_n; phases CN; nominal_voltage 120;  } 

object overhead_line {
          name   span_13152; 
          from   T2951055_n; 
          to     span_13152_n; 
          phases CN; 
          length 103.9447; 
          configuration SystemCnstDefaultCN__1/0 Triplex; 
          } 

object node {name   span_13152_n; phases CN; nominal_voltage 120;  } 

object overhead_line {
          name   span_13151; 
          from   T2951055_n; 
          to     span_13151_n; 
          phases CN; 
          length 95.593971; 
          configuration SystemCnstDefaultCN__1/0 Triplex; 
          } 

object node {name   span_13151_n; phases CN; nominal_voltage 120;  } 

object overhead_line {
          name   span_13473; 
          from   T2951055_n; 
          to     span_13473_n; 
          phases CN; 
          length 305.27591; 
          configuration SystemCnstDefaultCN__1/0 Triplex; 
          } 

object node {name   span_13473_n; phases CN; nominal_voltage 120;  } 

object overhead_line {
          name   span_13149; 
          from   T2951055_n; 
          to     span_13149_n; 
          phases CN; 
          length 170.72621; 
          configuration SystemCnstDefaultCN__1/0 Triplex; 
          } 

object node {name   span_13149_n; phases CN; nominal_voltage 120;  } 

object overhead_line {
          name   span_12302; 
          from   T2951055_n; 
          to     span_12302_n; 
          phases CN; 
          length 72.353172; 
          configuration SystemCnstDefaultCN__1/0 Triplex; 
          } 

object node {name   span_12302_n; phases CN; nominal_voltage 120;  } 

object transformer {
          name   T2951041; 
          from   span_106782_n; 
          to     T2951041_n; 
          phases CN; 
          configuration SINGLE_PHASE-_10-72000To12000V; 
          } 

object node {name   T2951041_n; phases CN; nominal_voltage 12000;  } 

object overhead_line {
          name   span_47993; 
          from   T2951041_n; 
          to     span_47993_n; 
          phases CN; 
          length 50.413876; 
          configuration SystemCnstDefaultCN__#2 Triplex; 
          } 

object node {name   span_47993_n; phases CN; nominal_voltage 12000;  } 

object transformer {
          name   T2951064; 
          from   span_47303_n; 
          to     T2951064_n; 
          phases CN; 
          configuration SINGLE_PHASE-_15-72000To12000V; 
          } 

object node {name   T2951064_n; phases CN; nominal_voltage 12000;  } 

object overhead_line {
          name   span_47305; 
          from   T2951064_n; 
          to     span_47305_n; 
          phases CN; 
          length 22.69186; 
          configuration SystemCnstDefaultCN__1/0 Triplex; 
          } 

object node {name   span_47305_n; phases CN; nominal_voltage 12000;  } 

object overhead_line {
          name   span_47306; 
          from   T2951064_n; 
          to     span_47306_n; 
          phases CN; 
          length 103.26629; 
          configuration SystemCnstDefaultCN__1/0 Triplex; 
          } 

object node {name   span_47306_n; phases CN; nominal_voltage 12000;  } 

object overhead_line {
          name   span_47307; 
          from   span_47306_n; 
          to     span_47307_n; 
          phases CN; 
          length 40.449535; 
          configuration SystemCnstDefaultCN__1/0 Triplex; 
          } 

object node {name   span_47307_n; phases CN; nominal_voltage 12000;  } 

object overhead_line {
          name   span_9383; 
          from   span_5678_n; 
          to     span_9383_n; 
          phases AN; 
          length 85.84034; 
          configuration SystemCnstDefaultAN__1/0 AC; 
          } 

object node {name   span_9383_n; phases AN; nominal_voltage 7200;  } 

object overhead_line {
          name   span_9384; 
          from   span_9383_n; 
          to     span_9384_n; 
          phases AN; 
          length 94.928009; 
          configuration SystemCnstDefaultAN__1/0 AC; 
          } 

object node {name   span_9384_n; phases AN; nominal_voltage 7200;  } 

object transformer {
          name   T2951090; 
          from   span_5678_n; 
          to     T2951090_n; 
          phases CN; 
          configuration SINGLE_PHASE-_25-72000To12000V; 
          } 

object node {name   T2951090_n; phases CN; nominal_voltage 12000;  } 

object overhead_line {
          name   span_47308; 
          from   T2951090_n; 
          to     span_47308_n; 
          phases CN; 
          length 50.142372; 
          configuration SystemCnstDefaultCN__1/0 Triplex; 
          } 

object node {name   span_47308_n; phases CN; nominal_voltage 12000;  } 

object overhead_line {
          name   span_341; 
          from   span_47275_n; 
          to     span_341_n; 
          phases AN; 
          length 121.00008; 
          configuration SystemCnstDefaultAN__1/0 AC; 
          } 

object node {name   span_341_n; phases AN; nominal_voltage 7200;  } 

object transformer {
          name   T2951091; 
          from   span_341_n; 
          to     T2951091_n; 
          phases AN; 
          configuration SINGLE_PHASE-_25-72000To12000V; 
          } 

object node {name   T2951091_n; phases AN; nominal_voltage 12000;  } 

object overhead_line {
          name   span_47288; 
          from   T2951091_n; 
          to     span_47288_n; 
          phases AN; 
          length 58.022858; 
          configuration SystemCnstDefaultAN__1/0 Triplex; 
          } 

object node {name   span_47288_n; phases AN; nominal_voltage 12000;  } 

object overhead_line {
          name   span_47291; 
          from   T2951091_n; 
          to     span_47291_n; 
          phases AN; 
          length 118.54012; 
          configuration SystemCnstDefaultAN__1/0 Triplex; 
          } 

object node {name   span_47291_n; phases AN; nominal_voltage 12000;  } 

object overhead_line {
          name   span_47285; 
          from   T2951091_n; 
          to     span_47285_n; 
          phases AN; 
          length 152.35721; 
          configuration SystemCnstDefaultAN__1/0 Triplex; 
          } 

object node {name   span_47285_n; phases AN; nominal_voltage 12000;  } 

object overhead_line {
          name   span_47286; 
          from   T2951091_n; 
          to     span_47286_n; 
          phases AN; 
          length 116.83635; 
          configuration SystemCnstDefaultAN__1/0 Triplex; 
          } 

object node {name   span_47286_n; phases AN; nominal_voltage 12000;  } 

object overhead_line {
...